Input Parameters:
   integrator                     = md
   tinit                          = 0
   dt                             = 0.002
   nsteps                         = 50000
   init-step                      = 0
   simulation-part                = 1
   mts                            = false
   mass-repartition-factor        = 1
   comm-mode                      = Linear
   nstcomm                        = 100
   bd-fric                        = 0
   ld-seed                        = -549930357
   emtol                          = 10
   emstep                         = 0.01
   niter                          = 20
   fcstep                         = 0
   nstcgsteep                     = 1000
   nbfgscorr                      = 10
   rtpi                           = 0.05
   nstxout                        = 1000
   nstvout                        = 1000
   nstfout                        = 0
   nstlog                         = 1000
   nstcalcenergy                  = 100
   nstenergy                      = 1000
   nstxout-compressed             = 0
   compressed-x-precision         = 1000
   cutoff-scheme                  = Verlet
   nstlist                        = 10
   pbc                            = xyz
   periodic-molecules             = false
   verlet-buffer-tolerance        = 0.005
   verlet-buffer-pressure-tolerance = 0.5
   rlist                          = 1
   coulombtype                    = PME
   coulomb-modifier               = Potential-shift
   rcoulomb-switch                = 0
   rcoulomb                       = 1
   epsilon-r                      = 1
   epsilon-rf                     = inf
   vdw-type                       = Cut-off
   vdw-modifier                   = Potential-shift
   rvdw-switch                    = 0
   rvdw                           = 1
   DispCorr                       = No
   table-extension                = 1
   fourierspacing                 = 0.12
   fourier-nx                     = 128
   fourier-ny                     = 128
   fourier-nz                     = 128
   pme-order                      = 4
   ewald-rtol                     = 1e-05
   ewald-rtol-lj                  = 0.001
   lj-pme-comb-rule               = Geometric
   ewald-geometry                 = 3d
   epsilon-surface                = 0
   ensemble-temperature-setting   = constant
   ensemble-temperature           = 300
   tcoupl                         = V-rescale
   nsttcouple                     = 10
   nh-chain-length                = 0
   print-nose-hoover-chain-variables = false
   pcoupl                         = No
   refcoord-scaling               = No
   posres-com: not available
   posres-comB: not available
   QMMM                           = false
qm-opts:
   ngQM                           = 0
   constraint-algorithm           = Lincs
   continuation                   = true
   Shake-SOR                      = false
   shake-tol                      = 0.0001
   lincs-order                    = 4
   lincs-iter                     = 1
   lincs-warnangle                = 30
   nwall                          = 0
   wall-type                      = 9-3
   wall-r-linpot                  = -1
   wall-atomtype[0]               = -1
   wall-atomtype[1]               = -1
   wall-density[0]                = 0
   wall-density[1]                = 0
   wall-ewald-zfac                = 3
   pull                           = false
   awh                            = false
   rotation                       = false
   interactiveMD                  = false
   disre                          = No
   disre-weighting                = Conservative
   disre-mixed                    = false
   dr-fc                          = 1000
   dr-tau                         = 0
   nstdisreout                    = 100
   orire-fc                       = 0
   orire-tau                      = 0
   nstorireout                    = 100
   free-energy                    = no
   cos-acceleration               = 0
   deform (3x3):
      deform[    0]={ 0.00000e+00,  0.00000e+00,  0.00000e+00}
      deform[    1]={ 0.00000e+00,  0.00000e+00,  0.00000e+00}
      deform[    2]={ 0.00000e+00,  0.00000e+00,  0.00000e+00}
   simulated-tempering            = false
   swapcoords                     = no
   userint1                       = 0
   userint2                       = 0
   userint3                       = 0
   userint4                       = 0
   userreal1                      = 0
   userreal2                      = 0
   userreal3                      = 0
   userreal4                      = 0
   applied-forces:
     electric-field:
       x:
         E0                       = 0
         omega                    = 0
         t0                       = 0
         sigma                    = 0
       y:
         E0                       = 0
         omega                    = 0
         t0                       = 0
         sigma                    = 0
       z:
         E0                       = 0
         omega                    = 0
         t0                       = 0
         sigma                    = 0
     density-guided-simulation:
       active                     = false
       group                      = protein
       similarity-measure         = inner-product
       atom-spreading-weight      = unity
       force-constant             = 1e+09
       gaussian-transform-spreading-width = 0.2
       gaussian-transform-spreading-range-in-multiples-of-width = 4
       reference-density-filename = reference.mrc
       nst                        = 1
       normalize-densities        = true
       adaptive-force-scaling     = false
       adaptive-force-scaling-time-constant = 4
       shift-vector               =
       transformation-matrix      =
     qmmm-cp2k:
       active                     = false
       qmgroup                    = System
       qmmethod                   = PBE
       qmfilenames                =
       qmcharge                   = 0
       qmmultiplicity             = 1
     colvars:
       active                     = false
       configfile                 =
       seed                       = -1
     nnpot:
       active                     = false
       modelfile                  = model.pt
       input-group                = System
       model-input1               =
       model-input2               =
       model-input3               =
       model-input4               =
grpopts:
   nrdf:          78
   ref-t:         300
   tau-t:         0.1
annealing:          No
annealing-npoints:           0
   acc:	           0           0           0
   nfreeze:           N           N           N
   energygrp-flags[  0]: 0

Changing nstlist from 10 to 80, rlist from 1 to 1.091

Initializing Domain Decomposition on 2 ranks
Dynamic load balancing: auto
Using update groups, nr 20, average size 1.7 atoms, max. radius 0.078 nm
Minimum cell size due to atom displacement: 1.416 nm
Initial maximum distances in bonded interactions:
    two-body bonded interactions: 0.366 nm, LJ-14, atoms 1 11
  multi-body bonded interactions: 0.366 nm, Ryckaert-Bell., atoms 1 11
Minimum cell size due to bonded interactions: 0.402 nm
Scaling the initial minimum size with 1/0.8 (option -dds) = 1.25
Using 0 separate PME ranks because: there are too few total ranks for efficient splitting
Optimizing the DD grid for 2 cells with a minimum initial size of 1.770 nm
The maximum allowed number of cells is: X 8 Y 8 Z 8
Domain decomposition grid 2 x 1 x 1, separate PME ranks 0
PME domain decomposition: 2 x 1 x 1
Domain decomposition rank 0, coordinates 0 0 0

The initial number of communication pulses is: X 1
The initial domain decomposition cell size is: X 7.62 nm

The maximum allowed distance for atom groups involved in interactions is:
                 non-bonded interactions           1.247 nm
            two-body bonded interactions  (-rdd)   1.247 nm
          multi-body bonded interactions  (-rdd)   1.247 nm

When dynamic load balancing gets turned on, these settings will change to:
The maximum number of communication pulses is: X 1
The minimum size for domain decomposition cells is 1.416 nm
The requested allowed shrink of DD cells (option -dds) is: 0.80
The allowed shrink of domain decomposition cells is: X 0.19
The maximum allowed distance for atom groups involved in interactions is:
                 non-bonded interactions           1.247 nm
            two-body bonded interactions  (-rdd)   1.247 nm
          multi-body bonded interactions  (-rdd)   1.247 nm

Local state does not use filler particles

Using 2 MPI threads
Using 18 OpenMP threads per tMPI thread

Note: Your choice of number of MPI ranks and amount of resources results in using 18 OpenMP threads per rank, which is most likely inefficient. The optimum is usually between 1 and 8 threads per rank.
System total charge: 0.100
Will do PME sum in reciprocal space for electrostatic interactions.

Using a Gaussian width (1/beta) of 0.320163 nm for Ewald
Potential shift: LJ r^-12: -1.000e+00 r^-6: -1.000e+00, Ewald -1.000e-05
Initialized non-bonded Coulomb Ewald tables, spacing: 9.33e-04 size: 1073

Generated table with 1045 data points for 1-4 COUL.
Tabscale = 500 points/nm
Generated table with 1045 data points for 1-4 LJ6.
Tabscale = 500 points/nm
Generated table with 1045 data points for 1-4 LJ12.
Tabscale = 500 points/nm

Using SIMD2xMM 4x8 nonbonded short-range kernels

Using a dual 4x8 pair-list setup updated with dynamic pruning:
  outer list: updated every 80 steps, buffer 0.091 nm, rlist 1.091 nm
  inner list: updated every 40 steps, buffer 0.000 nm, rlist 1.000 nm
At tolerance 0.005 kJ/mol/ps per atom, equivalent classical 1x1 list would be:
  outer list: updated every 80 steps, buffer 0.347 nm, rlist 1.347 nm
  inner list: updated every 40 steps, buffer 0.113 nm, rlist 1.113 nm

The average pressure is off by at most 0.15 bar due to missing LJ interactions

Using Geometric Lennard-Jones combination rule

Linking all bonded interactions to atoms

Pinning threads with an auto-selected logical cpu stride of 1

Intra-simulation communication will occur every 10 steps.

There are: 34 Atoms
Atom distribution over 2 domains: av 17 stddev 12 min 5 max 29
Center of mass motion removal mode is Linear
We have the following groups for center of mass motion removal:
  0:  rest

Started mdrun on rank 0 Fri May 16 21:37:19 2025

           Step           Time
              0        0.00000

   Energies (kJ/mol)
           Bond          Angle Ryckaert-Bell.          LJ-14     Coulomb-14
    8.69944e-07    1.62505e+01    2.34643e+00    1.51204e+00   -4.32388e+01
        LJ (SR)   Coulomb (SR)   Coul. recip. Position Rest.      Potential
    6.28912e+01   -4.57883e+02    2.00989e+01    6.89901e-04   -3.98022e+02
    Kinetic En.   Total Energy  Conserved En.    Temperature Pressure (bar)
    9.12090e+01   -3.06813e+02   -3.06813e+02    2.81280e+02    4.38149e-01

	<====  A V E R A G E S  ====>

	Statistics over 50001 steps using 501 frames

   Energies (kJ/mol)
           Bond          Angle Ryckaert-Bell.          LJ-14     Coulomb-14
    9.13760e+00    1.40952e+01    3.12509e+00    3.10711e+00   -4.57741e+01
        LJ (SR)   Coulomb (SR)   Coul. recip. Position Rest.      Potential
    7.11486e+01   -4.86642e+02    1.10596e+01    5.56696e+00   -4.15176e+02
    Kinetic En.   Total Energy  Conserved En.    Temperature Pressure (bar)
    9.83505e+01   -3.16825e+02   -4.28503e+02    3.03304e+02    2.17604e-01

   Total Virial (kJ/mol)
    1.18278e+01   -1.12058e+00   -4.49210e+00
   -1.11638e+00    1.19753e+01    4.12532e+00
   -4.47983e+00    4.13405e+00    4.92305e+00

   Pressure (bar)
    3.37462e-01    4.51232e-02    1.52685e-01
    4.50838e-02    1.34968e-01    3.24787e-04
    1.52570e-01    2.42966e-04    1.80383e-01
